
     RDKit          3D

 26 26  0  0  0  0  0  0  0  0999 V2000
    3.4528    0.3617    0.5033 N   0  0  0  0  0  0  0  0  0  0  0  0
    2.4375   -0.5599    0.0007 C   0  0  0  0  0  0  0  0  0  0  0  0
    1.0370   -0.1112    0.4486 C   0  0  1  0  0  0  0  0  0  0  0  0
    0.7183    1.1238   -0.1655 O   0  0  0  0  0  0  0  0  0  0  0  0
   -0.3752    1.7472    0.4943 C   0  0  0  0  0  0  0  0  0  0  0  0
   -1.5352    0.7741    0.8303 C   0  0  2  0  0  0  0  0  0  0  0  0
   -1.4598   -0.4968   -0.0484 C   0  0  2  0  0  0  0  0  0  0  0  0
   -0.0632   -1.1682    0.1298 C   0  0  1  0  0  0  0  0  0  0  0  0
    0.2776   -1.9326   -1.0017 O   0  0  0  0  0  0  0  0  0  0  0  0
   -1.7914   -0.1842   -1.5241 C   0  0  0  0  0  0  0  0  0  0  0  0
   -2.7699    1.4283    0.6847 O   0  0  0  0  0  0  0  0  0  0  0  0
    4.3899   -0.0385    0.2679 H   0  0  0  0  0  0  0  0  0  0  0  0
    3.3742    1.2595   -0.0276 H   0  0  0  0  0  0  0  0  0  0  0  0
    2.6418   -1.5756    0.4062 H   0  0  0  0  0  0  0  0  0  0  0  0
    2.4912   -0.6064   -1.1105 H   0  0  0  0  0  0  0  0  0  0  0  0
    1.0909    0.0160    1.5578 H   0  0  0  0  0  0  0  0  0  0  0  0
   -0.0180    2.2480    1.4212 H   0  0  0  0  0  0  0  0  0  0  0  0
   -0.7540    2.5483   -0.1758 H   0  0  0  0  0  0  0  0  0  0  0  0
   -1.4168    0.4633    1.8957 H   0  0  0  0  0  0  0  0  0  0  0  0
   -2.2325   -1.2122    0.3121 H   0  0  0  0  0  0  0  0  0  0  0  0
   -0.1157   -1.8467    1.0147 H   0  0  0  0  0  0  0  0  0  0  0  0
   -0.2747   -2.7571   -0.9671 H   0  0  0  0  0  0  0  0  0  0  0  0
   -2.7721    0.3296   -1.6051 H   0  0  0  0  0  0  0  0  0  0  0  0
   -1.0132    0.4579   -1.9865 H   0  0  0  0  0  0  0  0  0  0  0  0
   -1.8690   -1.1248   -2.1090 H   0  0  0  0  0  0  0  0  0  0  0  0
   -3.4504    0.8563    1.1269 H   0  0  0  0  0  0  0  0  0  0  0  0
  1  2  1  0
  2  3  1  0
  3  4  1  0
  4  5  1  0
  5  6  1  0
  6  7  1  0
  7  8  1  0
  8  9  1  0
  7 10  1  0
  6 11  1  0
  8  3  1  0
  1 12  1  0
  1 13  1  0
  2 14  1  0
  2 15  1  0
  3 16  1  1
  5 17  1  0
  5 18  1  0
  6 19  1  1
  7 20  1  1
  8 21  1  1
  9 22  1  0
 10 23  1  0
 10 24  1  0
 10 25  1  0
 11 26  1  0
M  END
