
     RDKit          3D

 24 26  0  0  0  0  0  0  0  0999 V2000
   -0.5786    0.2397   -1.3840 C   0  0  0  0  0  0  0  0  0  0  0  0
   -0.7740    1.1606   -0.3585 C   0  0  0  0  0  0  0  0  0  0  0  0
   -0.2485    0.9570    0.9145 C   0  0  0  0  0  0  0  0  0  0  0  0
   -0.4402    1.8872    1.9680 C   0  0  0  0  0  0  0  0  0  0  0  0
    0.0849    1.6629    3.2033 C   0  0  0  0  0  0  0  0  0  0  0  0
    0.8339    0.4944    3.4604 C   0  0  0  0  0  0  0  0  0  0  0  0
    1.0403   -0.4225    2.4762 C   0  0  0  0  0  0  0  0  0  0  0  0
    0.5105   -0.2272    1.1750 C   0  0  0  0  0  0  0  0  0  0  0  0
    0.7059   -1.1480    0.1495 C   0  0  0  0  0  0  0  0  0  0  0  0
    0.1805   -0.9444   -1.1235 C   0  0  0  0  0  0  0  0  0  0  0  0
    0.3721   -1.8746   -2.1770 C   0  0  0  0  0  0  0  0  0  0  0  0
   -0.1530   -1.6503   -3.4123 C   0  0  0  0  0  0  0  0  0  0  0  0
   -0.9020   -0.4819   -3.6694 C   0  0  0  0  0  0  0  0  0  0  0  0
   -1.1084    0.4351   -2.6852 C   0  0  0  0  0  0  0  0  0  0  0  0
   -1.3480    2.0561   -0.5555 H   0  0  0  0  0  0  0  0  0  0  0  0
   -1.0146    2.7802    1.7653 H   0  0  0  0  0  0  0  0  0  0  0  0
   -0.0655    2.3763    4.0006 H   0  0  0  0  0  0  0  0  0  0  0  0
    1.2408    0.3383    4.4489 H   0  0  0  0  0  0  0  0  0  0  0  0
    1.6131   -1.3192    2.6673 H   0  0  0  0  0  0  0  0  0  0  0  0
    1.2799   -2.0435    0.3465 H   0  0  0  0  0  0  0  0  0  0  0  0
    0.9465   -2.7676   -1.9743 H   0  0  0  0  0  0  0  0  0  0  0  0
   -0.0025   -2.3637   -4.2095 H   0  0  0  0  0  0  0  0  0  0  0  0
   -1.3089   -0.3257   -4.6579 H   0  0  0  0  0  0  0  0  0  0  0  0
   -1.6811    1.3317   -2.8762 H   0  0  0  0  0  0  0  0  0  0  0  0
  1  2  2  0
  2  3  1  0
  3  4  2  0
  4  5  1  0
  5  6  2  0
  6  7  1  0
  7  8  2  0
  8  9  1  0
  9 10  2  0
 10 11  1  0
 11 12  2  0
 12 13  1  0
 13 14  2  0
  8  3  1  0
 10  1  1  0
 14  1  1  0
  2 15  1  0
  4 16  1  0
  5 17  1  0
  6 18  1  0
  7 19  1  0
  9 20  1  0
 11 21  1  0
 12 22  1  0
 13 23  1  0
 14 24  1  0
M  END
$$$$
