
     RDKit          3D

 18 17  0  0  0  0  0  0  0  0999 V2000
    1.2003    0.2186    0.1943 C   0  0  0  0  0  0  0  0  0  0  0  0
    2.1205   -0.9662    0.3012 C   0  0  0  0  0  0  0  0  0  0  0  0
    2.5614   -1.3112    1.3859 O   0  0  0  0  0  0  0  0  0  0  0  0
   -0.1954   -0.1531   -0.3815 C   0  0  0  0  0  0  0  0  0  0  0  0
   -0.9898    1.1387   -0.7121 C   0  0  0  0  0  0  0  0  0  0  0  0
   -1.1787    1.9370    0.4287 O   0  0  0  0  0  0  0  0  0  0  0  0
   -0.9557   -1.0109    0.6131 C   0  0  0  0  0  0  0  0  0  0  0  0
   -0.5236   -2.1576    0.9101 O   0  0  0  0  0  0  0  0  0  0  0  0
   -2.1418   -0.5635    1.1918 O   0  0  0  0  0  0  0  0  0  0  0  0
   -0.0502   -0.9027   -1.5659 O   0  0  0  0  0  0  0  0  0  0  0  0
    1.6915    0.9658   -0.4660 H   0  0  0  0  0  0  0  0  0  0  0  0
    1.0824    0.6882    1.1964 H   0  0  0  0  0  0  0  0  0  0  0  0
    2.4034   -1.5170   -0.5899 H   0  0  0  0  0  0  0  0  0  0  0  0
   -0.4708    1.7189   -1.5110 H   0  0  0  0  0  0  0  0  0  0  0  0
   -1.9869    0.8643   -1.1193 H   0  0  0  0  0  0  0  0  0  0  0  0
   -0.4076    2.5600    0.4782 H   0  0  0  0  0  0  0  0  0  0  0  0
   -2.6504   -1.1418    1.8500 H   0  0  0  0  0  0  0  0  0  0  0  0
    0.4915   -0.3675   -2.2041 H   0  0  0  0  0  0  0  0  0  0  0  0
  1  2  1  0
  2  3  2  0
  1  4  1  0
  4  5  1  0
  5  6  1  0
  4  7  1  0
  7  8  2  0
  7  9  1  0
  4 10  1  0
  1 11  1  0
  1 12  1  0
  2 13  1  0
  5 14  1  0
  5 15  1  0
  6 16  1  0
  9 17  1  0
 10 18  1  0
M  END
