
     RDKit          3D

 12 12  0  0  0  0  0  0  0  0999 V2000
   -0.2313    2.6593    0.0670 O   0  0  0  0  0  0  0  0  0  0  0  0
   -0.1222    1.4043    0.0354 C   0  0  0  0  0  0  0  0  0  0  0  0
   -1.3347    0.5575    0.0446 C   0  0  0  0  0  0  0  0  0  0  0  0
   -2.9167    1.3340    0.1000 Cl  0  0  0  0  0  0  0  0  0  0  0  0
   -1.2183   -0.7810    0.0108 C   0  0  0  0  0  0  0  0  0  0  0  0
   -2.6423   -1.8206    0.0206 Cl  0  0  0  0  0  0  0  0  0  0  0  0
    0.1222   -1.4043   -0.0354 C   0  0  0  0  0  0  0  0  0  0  0  0
    0.2313   -2.6593   -0.0670 O   0  0  0  0  0  0  0  0  0  0  0  0
    1.3347   -0.5575   -0.0446 C   0  0  0  0  0  0  0  0  0  0  0  0
    2.9167   -1.3340   -0.1000 Cl  0  0  0  0  0  0  0  0  0  0  0  0
    1.2183    0.7810   -0.0108 C   0  0  0  0  0  0  0  0  0  0  0  0
    2.6423    1.8206   -0.0206 Cl  0  0  0  0  0  0  0  0  0  0  0  0
  1  2  2  0
  2  3  1  0
  3  4  1  0
  3  5  2  0
  5  6  1  0
  5  7  1  0
  7  8  2  0
  7  9  1  0
  9 10  1  0
  9 11  2  0
 11 12  1  0
 11  2  1  0
M  END
