
     RDKit          3D

 98110  0  0  0  0  0  0  0  0999 V2000
   -2.5594   -5.6567   -5.9500 C   0  0  0  0  0  0  0  0  0  0  0  0
   -3.2342   -4.8378   -5.1379 C   0  0  0  0  0  0  0  0  0  0  0  0
   -2.6894   -3.6678   -4.4223 C   0  0  0  0  0  0  0  0  0  0  0  0
   -1.7410   -2.8369   -4.8851 C   0  0  0  0  0  0  0  0  0  0  0  0
   -1.0602   -3.0467   -6.1829 C   0  0  0  0  0  0  0  0  0  0  0  0
   -0.8042   -2.0538   -7.0557 C   0  0  0  0  0  0  0  0  0  0  0  0
   -1.2373   -0.6376   -6.9777 C   0  0  0  0  0  0  0  0  0  0  0  0
   -1.3435    0.1072   -5.8753 C   0  0  0  0  0  0  0  0  0  0  0  0
   -1.1563   -0.3887   -4.5097 C   0  0  0  0  0  0  0  0  0  0  0  0
   -1.3414   -1.6851   -4.0583 C   0  0  0  0  0  0  0  0  0  0  0  0
   -1.1269   -1.6553   -2.6864 C   0  0  0  0  0  0  0  0  0  0  0  0
   -1.1106   -2.7483   -1.8672 N   0  0  0  0  0  0  0  0  0  0  0  0
   -0.9331   -2.7669   -0.5103 C   0  0  0  0  0  0  0  0  0  0  0  0
   -0.8582   -1.6724    0.2586 N   0  0  0  0  0  0  0  0  0  0  0  0
   -0.6299   -2.1180    1.5019 C   0  0  0  0  0  0  0  0  0  0  0  0
   -0.4553   -1.2920    2.5752 N   0  0  0  0  0  0  0  0  0  0  0  0
   -0.3754    0.0691    2.5579 C   0  0  0  0  0  0  0  0  0  0  0  0
   -0.1790    0.8226    1.4566 N   0  0  0  0  0  0  0  0  0  0  0  0
   -0.2239    2.1127    1.8539 C   0  0  0  0  0  0  0  0  0  0  0  0
   -0.1086    3.1996    1.0313 N   0  0  0  0  0  0  0  0  0  0  0  0
   -0.1172    3.2025   -0.3322 C   0  0  0  0  0  0  0  0  0  0  0  0
   -0.3969    2.1318   -1.0706 N   0  0  0  0  0  0  0  0  0  0  0  0
   -0.2915    2.5289   -2.3456 C   0  0  0  0  0  0  0  0  0  0  0  0
   -0.5661    1.7182   -3.4142 N   0  0  0  0  0  0  0  0  0  0  0  0
   -0.8519    0.3792   -3.3936 C   0  0  0  0  0  0  0  0  0  0  0  0
   -0.8302   -0.4033   -2.3012 N   0  0  0  0  0  0  0  0  0  0  0  0
    0.0547    3.8903   -2.4146 C   0  0  0  0  0  0  0  0  0  0  0  0
    0.3797    4.6097   -3.5944 C   0  0  0  0  0  0  0  0  0  0  0  0
    0.0727    5.9846   -3.7285 C   0  0  0  0  0  0  0  0  0  0  0  0
    0.1209    6.9286   -2.6937 C   0  0  0  0  0  0  0  0  0  0  0  0
    0.4652    6.7463   -1.3590 C   0  0  0  0  0  0  0  0  0  0  0  0
    0.4556    5.5615   -0.6412 C   0  0  0  0  0  0  0  0  0  0  0  0
    0.1233    4.3079   -1.1396 C   0  0  0  0  0  0  0  0  0  0  0  0
   -0.4857    6.5118   -4.9932 C   0  0  0  0  0  0  0  0  0  0  0  0
    0.0160    6.3104   -6.2089 C   0  0  0  0  0  0  0  0  0  0  0  0
    1.2101    5.5159   -6.5108 C   0  0  0  0  0  0  0  0  0  0  0  0
    1.6354    4.4808   -5.7964 C   0  0  0  0  0  0  0  0  0  0  0  0
    1.0075    3.9287   -4.5858 C   0  0  0  0  0  0  0  0  0  0  0  0
   -0.3808    2.1802    3.2315 C   0  0  0  0  0  0  0  0  0  0  0  0
   -0.4835    0.8756    3.6772 C   0  0  0  0  0  0  0  0  0  0  0  0
   -0.5300    0.4190    5.0712 C   0  0  0  0  0  0  0  0  0  0  0  0
   -0.9959    1.1453    6.0896 C   0  0  0  0  0  0  0  0  0  0  0  0
   -1.6765    2.4591    6.0102 C   0  0  0  0  0  0  0  0  0  0  0  0
   -1.4098    3.4700    5.1576 C   0  0  0  0  0  0  0  0  0  0  0  0
   -2.2614    4.6687    5.2437 C   0  0  0  0  0  0  0  0  0  0  0  0
   -1.8074    5.9216    5.2074 C   0  0  0  0  0  0  0  0  0  0  0  0
   -0.3873    6.3144    5.1600 C   0  0  0  0  0  0  0  0  0  0  0  0
    0.6118    5.6262    4.5980 C   0  0  0  0  0  0  0  0  0  0  0  0
    0.4855    4.3651    3.8448 C   0  0  0  0  0  0  0  0  0  0  0  0
   -0.3981    3.3838    4.0819 C   0  0  0  0  0  0  0  0  0  0  0  0
   -0.5961   -3.5214    1.5337 C   0  0  0  0  0  0  0  0  0  0  0  0
   -0.4474   -4.3311    2.6914 C   0  0  0  0  0  0  0  0  0  0  0  0
    0.2680   -5.5498    2.6443 C   0  0  0  0  0  0  0  0  0  0  0  0
    0.2383   -6.4683    1.5814 C   0  0  0  0  0  0  0  0  0  0  0  0
   -0.4064   -6.3567    0.3501 C   0  0  0  0  0  0  0  0  0  0  0  0
   -0.8448   -5.1970   -0.2636 C   0  0  0  0  0  0  0  0  0  0  0  0
   -0.7637   -3.9113    0.2586 C   0  0  0  0  0  0  0  0  0  0  0  0
    1.2620   -5.8830    3.6951 C   0  0  0  0  0  0  0  0  0  0  0  0
    1.0763   -5.8110    5.0091 C   0  0  0  0  0  0  0  0  0  0  0  0
   -0.1751   -5.4187    5.6604 C   0  0  0  0  0  0  0  0  0  0  0  0
   -1.0825   -4.5926    5.1465 C   0  0  0  0  0  0  0  0  0  0  0  0
   -0.9930   -3.8843    3.8508 C   0  0  0  0  0  0  0  0  0  0  0  0
   -0.4907   -4.3748   -6.4875 C   0  0  0  0  0  0  0  0  0  0  0  0
   -1.1440   -5.5283   -6.3269 C   0  0  0  0  0  0  0  0  0  0  0  0
   -3.0727   -6.5441   -6.3024 H   0  0  0  0  0  0  0  0  0  0  0  0
   -4.2468   -5.1159   -4.8852 H   0  0  0  0  0  0  0  0  0  0  0  0
   -3.2007   -3.4072   -3.5023 H   0  0  0  0  0  0  0  0  0  0  0  0
   -0.3047   -2.3151   -7.9817 H   0  0  0  0  0  0  0  0  0  0  0  0
   -1.3402   -0.1228   -7.9270 H   0  0  0  0  0  0  0  0  0  0  0  0
   -1.5516    1.1643   -5.9972 H   0  0  0  0  0  0  0  0  0  0  0  0
    0.1641    0.4817    0.5406 H   0  0  0  0  0  0  0  0  0  0  0  0
   -0.5606   -0.1076   -1.3548 H   0  0  0  0  0  0  0  0  0  0  0  0
   -0.0546    7.9651   -2.9679 H   0  0  0  0  0  0  0  0  0  0  0  0
    0.6055    7.6501   -0.7780 H   0  0  0  0  0  0  0  0  0  0  0  0
    0.6189    5.6537    0.4278 H   0  0  0  0  0  0  0  0  0  0  0  0
   -1.3029    7.2192   -4.9182 H   0  0  0  0  0  0  0  0  0  0  0  0
   -0.4388    6.8375   -7.0351 H   0  0  0  0  0  0  0  0  0  0  0  0
    1.7189    5.7350   -7.4379 H   0  0  0  0  0  0  0  0  0  0  0  0
    2.4645    3.9139   -6.1940 H   0  0  0  0  0  0  0  0  0  0  0  0
    1.3083    2.9039   -4.4170 H   0  0  0  0  0  0  0  0  0  0  0  0
   -0.1879   -0.5843    5.2757 H   0  0  0  0  0  0  0  0  0  0  0  0
   -0.9916    0.6803    7.0667 H   0  0  0  0  0  0  0  0  0  0  0  0
   -2.4132    2.6342    6.7806 H   0  0  0  0  0  0  0  0  0  0  0  0
   -3.3161    4.5247    5.4270 H   0  0  0  0  0  0  0  0  0  0  0  0
   -2.5242    6.7190    5.3661 H   0  0  0  0  0  0  0  0  0  0  0  0
   -0.1502    7.2907    5.5592 H   0  0  0  0  0  0  0  0  0  0  0  0
    1.5880    6.0976    4.5794 H   0  0  0  0  0  0  0  0  0  0  0  0
    1.2555    4.2013    3.0995 H   0  0  0  0  0  0  0  0  0  0  0  0
    0.7413   -7.4195    1.7333 H   0  0  0  0  0  0  0  0  0  0  0  0
   -0.4364   -7.2566   -0.2556 H   0  0  0  0  0  0  0  0  0  0  0  0
   -1.1781   -5.2994   -1.2893 H   0  0  0  0  0  0  0  0  0  0  0  0
    2.2047   -6.3040    3.3676 H   0  0  0  0  0  0  0  0  0  0  0  0
    1.8705   -6.1651    5.6591 H   0  0  0  0  0  0  0  0  0  0  0  0
   -0.3185   -5.7543    6.6774 H   0  0  0  0  0  0  0  0  0  0  0  0
   -1.9080   -4.3132    5.7925 H   0  0  0  0  0  0  0  0  0  0  0  0
   -1.6353   -3.0125    3.8225 H   0  0  0  0  0  0  0  0  0  0  0  0
    0.5051   -4.4150   -6.9169 H   0  0  0  0  0  0  0  0  0  0  0  0
   -0.6443   -6.4268   -6.6626 H   0  0  0  0  0  0  0  0  0  0  0  0
  1  2  2  0
  2  3  1  0
  3  4  2  0
  4  5  1  0
  5  6  2  0
  6  7  1  0
  7  8  2  0
  8  9  1  0
  9 10  2  0
 10 11  1  0
 11 12  2  0
 12 13  1  0
 13 14  2  0
 14 15  1  0
 15 16  2  0
 16 17  1  0
 17 18  1  0
 18 19  1  0
 19 20  1  0
 20 21  2  0
 21 22  1  0
 22 23  2  0
 23 24  1  0
 24 25  2  0
 25 26  1  0
 23 27  1  0
 27 28  1  0
 28 29  1  0
 29 30  2  0
 30 31  1  0
 31 32  2  0
 32 33  1  0
 29 34  1  0
 34 35  2  0
 35 36  1  0
 36 37  2  0
 37 38  1  0
 19 39  2  0
 39 40  1  0
 40 41  1  0
 41 42  2  0
 42 43  1  0
 43 44  2  0
 44 45  1  0
 45 46  2  0
 46 47  1  0
 47 48  2  0
 48 49  1  0
 49 50  2  0
 15 51  1  0
 51 52  1  0
 52 53  1  0
 53 54  2  0
 54 55  1  0
 55 56  2  0
 56 57  1  0
 53 58  1  0
 58 59  2  0
 59 60  1  0
 60 61  2  0
 61 62  1  0
  5 63  1  0
 63 64  2  0
 64  1  1  0
 10  4  1  0
 26 11  1  0
 33 27  2  0
 50 39  1  0
 57 51  2  0
 25  9  1  0
 38 28  2  0
 50 44  1  0
 62 52  2  0
 57 13  1  0
 40 17  2  0
 33 21  1  0
  1 65  1  0
  2 66  1  0
  3 67  1  0
  6 68  1  0
  7 69  1  0
  8 70  1  0
 18 71  1  0
 26 72  1  0
 30 73  1  0
 31 74  1  0
 32 75  1  0
 34 76  1  0
 35 77  1  0
 36 78  1  0
 37 79  1  0
 38 80  1  0
 41 81  1  0
 42 82  1  0
 43 83  1  0
 45 84  1  0
 46 85  1  0
 47 86  1  0
 48 87  1  0
 49 88  1  0
 54 89  1  0
 55 90  1  0
 56 91  1  0
 58 92  1  0
 59 93  1  0
 60 94  1  0
 61 95  1  0
 62 96  1  0
 63 97  1  0
 64 98  1  0
M  END
